<?xml version="1.0" encoding="UTF-8"?>

<!-- generated on Wed Feb  7 13:08:07 2018 by SUMO duarouter Version 0.32.0
<?xml version="1.0" encoding="UTF-8"?>

<configuration xmlns:xsi="http://www.w3.org/2001/XMLSchema-instance" xsi:noNamespaceSchemaLocation="http://sumo.dlr.de/xsd/duarouterConfiguration.xsd">

    <input>
        <net-file value="street.net.xml"/>
        <route-files value="trips.trips.xml"/>
    </input>

    <output>
        <output-file value="street.rou.xml"/>
        <alternatives-output value="street.rou.alt.xml"/>
    </output>

    <processing>
        <ignore-errors value="true"/>
    </processing>

    <time>
        <begin value="0"/>
        <end value="100.0"/>
    </time>

    <report>
        <no-warnings value="true"/>
        <no-step-log value="true"/>
    </report>

</configuration>
-->

<routes xmlns:xsi="http://www.w3.org/2001/XMLSchema-instance" xsi:noNamespaceSchemaLocation="http://sumo.dlr.de/xsd/routes_file.xsd">
    <vehicle id="0" depart="0.00">
        <route edges="-26265718#0 154202542#1 154202542#2 154202529#2 -33002403#1 -33002403#0 33002400#1 33002400#2 33002400#3 33002400#4 33002882#0 33002882#1 33002882#2 33002882#3 33002879#4 33002885#0 33002885#1 33002884#1 33002886 50905298 50905305#0 50905305#1 22980019#6 22980019#7 22980019#8 22980019#9 22980019#10 18623352#0 18623352#1 18623352#2 18623352#3 18623352#4 18623352#5 8027582#4 8027582#5 8027582#6 50905278#0 50905278#1 50905278#2 84816949#0 84816949#1 84816949#2 8027580#0 8027580#1 75137074#0 75137074#1 75137074#2 8027571#4 8027571#5 8027575 282151358 282151361 8027572#4 8027572#5 540857494 540857498#4 540857498#0 540857496 18629829#0 18629829#1 18629829#2 18629829#3 18629829#4 18629829#5 18629829#6 18629829#7 18629829#8 18629829#9 18629829#10 18629829#11 18629829#12 18629829#13 18629829#14 18629829#15 89633802 22804021#1 89633807 89633813#0 89633813#1 51205423#0 51205423#1 51205423#2 51205423#3 51205423#4 51205423#5 51205423#6 51205423#7 51205423#8 51205423#9 50545368#0 50545368#1 50545368#2 50545368#3 521666093#0 521666093#1 521666093#2 521666093#3 521666093#4 22804625#0 -22804626#4 -22804626#3 -22804626#2 22804626#2"/>
    </vehicle>
    <vehicle id="2" depart="2.00">
        <route edges="8027580#1 75137074#0 75137074#1 75137074#2 8027571#4 8027571#5 8027571#0 8027571#1 8027571#2 18629207#0 18629207#1 18629207#2 18629207#3 18629207#4 18629207#5 84816949#4 84816949#5 84816949#6 8027584#0 8027584#1 8027584#2 8027582#8 50905314#0 50905314#1 50905314#2 50905314#3 531705282#1 531705281 531705280#0 531705280#1 531705280#2 531705280#3 219983568 219983574 219983580#0 219983580#1 221966546#1 18604777#0 18604777#1 18604777#2 18604834#0 18604834#1 -26264830#2 -26264830#1 -26285657#1 -26285657#0 26285651#2 26285651#3 26285651#4 26285651#5 75483897 -27848806#3 -27848806#2 47658040 -47658040"/>
    </vehicle>
    <vehicle id="3" depart="3.00">
        <route edges="-30802237 30802237 4695568 8027572#1 8027572#2 282151364 282151360 282151363 8027571#1 8027571#2 18629207#0 18629207#1 18629207#2 18629207#3 18629207#4 18629207#5 84816949#4 84816949#5 84816949#6 8027584#0 8027584#1 8027584#2 8027582#8 8027582#9 8027582#10 8027582#11 8027582#0 50905309#0 50905309#1 50905309#2 50905309#3 50905309#4 50905309#5 22980019#3 22980019#4 22980019#5 22980019#6 26265584#0 26265584#1 435487995#0 435487995#1"/>
    </vehicle>
    <vehicle id="4" depart="4.00">
        <route edges="128671394#2 128671394#3 128671394#4 128671394#5 128671394#6 128671394#7 128671394#8 128671394#9"/>
    </vehicle>
    <vehicle id="6" depart="6.00">
        <route edges="-22915271#0 27848806#0 27848806#1 27848806#2 27848806#3 -75483897 -26285651#5 -26285651#4 -26285651#3 -26285651#2 26285657#0 26285657#1 26264830#1 26264830#2 -18604834#1 -18604834#0 18604791#0 18604791#1 18604791#2 221966545#0 221966545#1 221966545#2 221966545#3 221966545#4 18623044#0 18623044#1 18623044#2 219983576 219983571 531705279#0 531705279#1 531705279#2 531705279#3 531705278 531705282#5 531705282#6 50905315#0 50905315#1 50905315#2 50905315#3 50905315#4 50905315#5 531559652 251023755 8027582#0 8027582#1 8027582#2 8027582#3 8027582#4 8027582#5 8027582#6 50905278#0 50905278#1 50905278#2 84816949#0 84816949#1 84816949#2 8027580#0 8027580#1 75137074#0 75137074#1 75137074#2 8027571#4 8027571#5 8027575 282151358 282151361 8027572#4 8027572#5 540857494 540857498#4 540857498#0 540857496 18629829#0 -542141625#1"/>
    </vehicle>
    <vehicle id="9" depart="9.00">
        <route edges="-26265913#22 -26265913#21 -26265913#20 -26265913#19 -26265913#18 -26265913#17 -26265913#16 -26265913#15 -26265913#14 -26265913#13 -26265913#12 -26265913#11 -26265913#10 -26265913#9 -26265913#8 -26265913#7 -26265913#6 -26265913#5 -26265913#4 -26265913#3 -26265913#2 -26265913#1 -26265913#0 26265907#0 26265907#1 150331716#0 150331716#1 18603162#0 18603162#1 221966545#4 18623044#0 18623044#1 18623044#2 219983576 219983571 531705279#0 531705279#1 531705279#2 531705279#3 531705278 531705282#5 531705282#6 50905315#0 50905315#1 50905315#2 50905315#3 50905315#4 50905315#5 531559652 251023755 8027582#0 8027582#1 8027582#2 8027582#3 8027582#4 8027582#5 8027582#6 50905278#0 50905278#1 50905278#2 84816949#0 84816949#1 84816949#2 8027580#0 8027580#1 75137074#0 75137074#1 75137074#2 8027571#4 18630334 499548865 499548863 499548862 510005741 38169096 277634782 49197578"/>
    </vehicle>
    <vehicle id="10" depart="10.00">
        <route edges="22804029#8 22804029#9 -89633801#0 89633812 523994817 89633799 -18629829#15 -18629829#14 -18629829#13 -18629829#12 -18629829#11 -18629829#10 -18629829#9 -18629829#8 -18629829#7 -18629829#6 -18629829#5 -18629829#4 -18629829#3 -18629829#2 -18629829#1 -18629829#0 540857497 540857498#2 540857495 8027572#7 8027572#0 8027572#1 8027572#2 282151364 282151360 282151363 8027571#1 8027571#2 18629207#0 18629207#1 18629207#2 18629207#3 18629207#4 18629207#5 84816949#4 84816949#5 84816949#6 8027584#0 8027584#1 8027584#2 8027582#8 50905314#0 50905314#1 50905314#2 50905314#3 531705282#1 531705281 531705280#0 531705280#1 531705280#2 531705280#3 219983568 219983574 219983580#0 219983580#1 221966546#1 84816944 221966545#0 221966545#1 221966545#2 18603151#0 18603151#1 150061815#0 150061815#1 26265913#0 26265913#1 26265913#2 26265913#3 26265913#4 26265913#5 26265913#6 26265913#7 26265913#8 26265913#9 26265913#10 26265913#11 26265913#12 26265913#13 26265913#14 -26149472 -26138234#5 -26138234#4 26138234#4"/>
    </vehicle>
    <vehicle id="12" depart="12.00">
        <route edges="128671394#5 128671394#6 128671394#7 128671394#8 128671394#9 128671393#2 128671393#3 30802237 4695568 8027572#1 8027572#2 8027572#3 8027572#4 8027572#5 540857494 540857498#4 540857498#0 540857496 18629829#0 18629829#1 18629829#2 18629829#3 18629829#4 18629829#5 18629829#6 18629829#7 18629829#8 18629829#9 18629829#10 18629829#11 18629829#12 18629829#13 18629829#14 18629829#15 89633802 22804021#1 89633807 89633813#0 89633813#1 51205423#0 51205423#1 51205423#2 51205423#3 51205423#4 51205423#5 51205423#6 51205423#7 51205423#8 51205423#9 50545368#0 50545368#1 50545368#2 50545368#3 521666093#0 521666093#1 521666093#2 521666093#3 521666093#4 22804625#0 22804625#1 22804626#0 22804626#1"/>
    </vehicle>
    <vehicle id="13" depart="13.00">
        <route edges="-18629829#6 -18629829#5 -18629829#4 -18629829#3 -18629829#2 -18629829#1 -18629829#0 540857497 540857498#2 540857495 8027572#7 4695569 -30802237 128671393#0 128671393#1 -128671394#9"/>
    </vehicle>
    <vehicle id="14" depart="14.00">
        <route edges="-50545368#2 -50545368#1 -50545368#0 -51205423#9 -51205423#8 -51205423#7 -51205423#6 -51205423#5 -51205423#4 -51205423#3 -51205423#2 -51205423#1 -51205423#0 -89633813#1 -89633813#0 22804026 22804021#3 22804021#4 523994817 89633799 -18629829#15 -18629829#14 -18629829#13 -18629829#12 -18629829#11 -18629829#10 -18629829#9 -18629829#8 -18629829#7 -18629829#6 -18629829#5 -18629829#4 -18629829#3 -18629829#2 -18629829#1 -18629829#0 540857497 540857498#2 540857495 8027572#7 8027572#0 8027572#1 8027572#2 282151364 282151360 282151363 8027571#1 8027571#2 8027571#3 8027571#4 18630334 499548865 499548863 499548862 510005741"/>
    </vehicle>
    <vehicle id="15" depart="15.00">
        <route edges="-154202542#1 154202542#1 154202542#2 154202529#2 154202529#3 154202529#0 33001262 33001266#1 -154202534#1 -154202534#0 154202534#0"/>
    </vehicle>
    <vehicle id="16" depart="16.00">
        <route edges="18604834#1 -18604834#1 -18604834#0 18604791#0 18604791#1 18604791#2 221966545#0 221966545#1 221966545#2 221966545#3 221966545#4 18623044#0 18623044#1 18623044#2 219983576 219983571 531705279#0 531705279#1 531705279#2 531705279#3 531705278 531705282#5 531705282#6 50905315#0 50905315#1 50905315#2 50905315#3 50905315#4 50905315#5 531559652 251023755 8027582#0 50905309#0 50905309#1 50905309#2 50905309#3 50905309#4 50905309#5 22980019#3 22980019#4 26265580#0 26265580#1 50905301 50905303 26265724#3 26265712#0 26265712#1 33002879#1 33002879#2 33002881#0 33002881#1 33002881#2 33002400#0 33002400#1 33002400#2 33002400#3 -142377023#1 -142377023#0 142377016#1 -142377038#2 -142377038#1 -142377038#0 -154202544#1"/>
    </vehicle>
    <vehicle id="17" depart="17.00">
        <route edges="-22804625#3 22804625#3 22804029#2 22804029#3 22804029#4 22804029#5"/>
    </vehicle>
    <vehicle id="18" depart="18.00">
        <route edges="-128671394#2 -226083531 -136984832#2 -136984832#1 -136984832#0 50448438#4 50448438#5 193935474#0 193935474#1 193935474#2 128671393#3 30802237 4695568 8027572#1 8027572#2 282151364 282151360 282151363 8027571#1 8027571#2 18629207#0 18629207#1 18629207#2 18629207#3 18629207#4"/>
    </vehicle>
    <vehicle id="19" depart="19.00">
        <route edges="-26265585 -33002884#4 -33002884#3 -33002884#2 33002886 50905298 50905305#0 50905305#1 22980019#6 22980019#7 22980019#8 22980019#9 22980019#10 18623352#0 18623352#1 18623352#2 18623352#3 18623352#4 18623352#5 8027582#4 8027582#5 8027582#6 50905278#0 50905278#1 50905278#2 84816949#0 84816949#1 84816949#2 8027580#0 8027580#1 75137074#0 75137074#1 75137074#2 8027571#4 8027571#5 8027575 282151358 282151361 8027572#4 8027572#5 540857494 540857498#4 540857498#0 540857496 18629829#0 18629829#1 18629829#2 18629829#3 18629829#4 18629829#5 18629829#6 18629829#7 18629829#8 18629829#9 18629829#10 18629829#11 18629829#12 18629829#13 18629829#14 18629829#15 89633802 22804021#1 89633807 89633813#0 89633813#1 51205423#0 51205423#1 51205423#2 51205423#3 51205423#4 51205423#5 51205423#6 51205423#7 51205423#8 51205423#9 50545368#0 50545368#1 50545368#2 50545368#3 521666093#0 -22804694#6 -22804694#5 -22804694#4 -22804694#3 -22804694#2 -22804694#1 -22804694#0 521666093#6 22804029#0 22804029#1 22804029#2 22804029#3 22804029#4 22804029#5 22804029#6 22804029#7 22804029#8 22804029#9"/>
    </vehicle>
    <vehicle id="22" depart="22.00">
        <route edges="-18628506#1 18628506#1 -26122425 -18628534#1 -18628534#0 -26265913#20 -26265913#19 -26265913#18 -26265913#17 -26265913#16 -26265913#15 -26265913#14 -26265913#13 -26265913#12 -26265913#11 -26265913#10 -26265913#9 -26265913#8 -26265913#7 -26265913#6 -26265913#5 -26265913#4 -26265913#3 -26265913#2 -26265913#1 -26265913#0 26265907#0 26265907#1 150331716#0 150331716#1 18603162#0 18603162#1 221966545#4 18623044#0 18623044#1 18623044#2 219983576 219983571 531705279#0 531705279#1 531705279#2 531705279#3 531705278 531705282#5 531705282#6 50905315#0 50905315#1 50905315#2 50905315#3 50905315#4 50905315#5 531559652 251023755 8027582#0 8027582#1 8027582#2 8027582#3 8027582#4 8027582#5 8027582#6 50905278#0 50905278#1 50905278#2 84816949#0 84816949#1 84816949#2 8027580#0 8027580#1 75137074#0 75137074#1 75137074#2 8027571#4 8027571#5 8027575 282151358 282151361 8027572#4 8027572#5 540857494 540857498#4 540857498#0 540857496 18629829#0 18629829#1 18629829#2 18629829#3 18629829#4 18629829#5 18629829#6 18629829#7 18629829#8 18629829#9 18629829#10 18629829#11 18629829#12 18629829#13 18629829#14 18629829#15 89633802 22804021#1 89633807 89633813#0 89633813#1 51205423#0 51205423#1 51205423#2 51205423#3 51205423#4 51205423#5 51205423#6 51205423#7 51205423#8 51205423#9 50545368#0 50545368#1 50545368#2 50545368#3 521666093#0 -22804694#6 -22804694#5 -22804694#4 -22804694#3 -22804694#2 -22804694#1 -22804694#0 521666093#6 22804029#0 22804029#1 22804029#2 22804029#3 22804029#4 22804029#5"/>
    </vehicle>
    <vehicle id="23" depart="23.00">
        <route edges="16279990#1 16279990#2 8027571#2 18629207#0 18629207#1 18629207#2 18629207#3 18629207#4 18629207#5 84816949#4 84816949#5 84816949#6 8027584#0 8027584#1 8027584#2 8027582#8 50905314#0 50905314#1 50905314#2 50905314#3 531705282#1 531705282#2 531705282#3 531705282#4 531705282#5 531705282#6 50905315#0 50905315#1 50905315#2 50905315#3"/>
    </vehicle>
    <vehicle id="24" depart="24.00">
        <route edges="31872860 499548867 499548866 18630667 16279990#0 16280031#0 16280031#1 18629207#1 18629207#2 18629207#3 18629207#4 18629207#5 84816949#4 84816949#5 84816949#6 8027584#0 8027584#1 8027584#2 8027582#8 8027582#9 8027582#10 8027582#11 8027582#0 50905309#0 50905309#1 50905309#2 50905309#3 50905309#4 50905309#5 22980019#3 22980019#4 26265580#0 26265580#1 50905301 50905303 26265724#3 26265712#0 26265712#1 33002879#1 33002879#2 33002881#0 33002881#1 33002881#2 33002400#0 33002400#1 33002400#2 33002400#3 -142377023#1 -142377023#0 142377016#1 -142377038#2 -142377038#1 -142377038#0 -154202544#1 -154202544#0 154202544#0"/>
    </vehicle>
    <vehicle id="26" depart="26.00">
        <route edges="26265913#18 26265913#19 26265913#20 18628534#0 18628534#1 26122425 26122426#0 26122426#1 26122426#2 -18628052#1 18628052#1"/>
    </vehicle>
    <vehicle id="30" depart="30.00">
        <route edges="2305914 -16279905#1 -16279905#0 -16279904 -16279885 16279973 510003336 16279990#0 16280031#0 16280031#1 18629207#1 18629207#2 18629207#3 18629207#4 18629207#5 84816949#4 84816949#5 84816949#6 8027584#0 8027584#1 8027584#2 8027582#8 8027582#9 8027582#10 8027582#11 8027582#0 50905309#0 50905309#1 50905309#2 50905309#3 50905309#4 50905309#5 22980019#3 22980019#4 26265580#0 26265580#1 50905301 50905303 26265724#3 26265712#0 26265712#1 33002879#1 33002879#2 33002881#0 33002881#1 33002881#2 33002400#0 33002403#0 33002403#1"/>
    </vehicle>
    <vehicle id="31" depart="31.00">
        <route edges="18629207#0 18629207#1 18629207#2 18629207#3 18629207#4 18629207#5 84816949#4 84816949#5 84816949#6 8027584#0 8027584#1 8027584#2 8027582#8 8027582#9 8027582#10 8027582#11 8027582#0 8027582#1 8027582#2 8027582#3 8027582#4 8027582#5 8027582#6 50905278#0 50905278#1"/>
    </vehicle>
    <vehicle id="32" depart="32.00">
        <route edges="-154202542#1 154202542#1 154202542#2 154202529#2 -33002403#1 -33002403#0 33002400#1 33002400#2 33002400#3 33002400#4 33002882#0 33002882#1 33002882#2 33002882#3 33002879#4 33002885#0 33002885#1 33002884#1 33002886 50905298 50905305#0 50905305#1 22980019#6 22980019#7 22980019#8 22980019#9 22980019#10 18623352#0 18623352#1 18623352#2 18623352#3 18623352#4 18623352#5 8027582#4 8027582#5 8027582#6 8027582#7 8027582#8 50905314#0 50905314#1 50905314#2 50905314#3 531705282#1 531705281 531705280#0 531705280#1 531705280#2 531705280#3 219983568 219983574 219983580#0 219983580#1 221966546#1 84816944 221966545#0 -18605558#5 26264833#0 26264833#1 26264833#2"/>
    </vehicle>
    <vehicle id="33" depart="33.00">
        <route edges="154202535 154202531#0 154202531#1 154202537"/>
    </vehicle>
    <vehicle id="34" depart="34.00">
        <route edges="-142377038#0 154202544#2 154202544#3 154202528#4 33002402#0 33002402#1 33002400#3 33002400#4 33002882#0 33002882#1 33002882#2 33002882#3 33002879#4 33002885#0 33002885#1 33002884#1 33002886 50905298 50905305#0 50905305#1 22980019#6 22980019#7 22980019#8 22980019#9 22980019#10 18623352#0 18623352#1 18623352#2 18623352#3 18623352#4 18623352#5 8027582#4 8027582#5 8027582#6 8027582#7 8027582#8 50905314#0 50905314#1 50905314#2 50905314#3 531705282#1 531705281 531705280#0 531705280#1 531705280#2 531705280#3 219983568 219983574 219983580#0 219983580#1 221966546#1 84816944 221966545#0 221966545#1 221966545#2 18603151#0 18603151#1 150061815#0 150061815#1 26265913#0 26265913#1 26265913#2 26265913#3 -26265913#3"/>
    </vehicle>
    <vehicle id="35" depart="35.00">
        <route edges="33002882#1 33002882#2 33002882#3 33002879#4 33002885#0 33002885#1 33002884#1 33002886 50905298 50905305#0 50905305#1 22980019#6 22980019#7 22980019#8 22980019#9 22980019#10 18623352#0 18623352#1 18623352#2 18623352#3 18623352#4 18623352#5 8027582#4 8027582#5 8027582#6 8027582#7 8027582#8 50905314#0 50905314#1 50905314#2 50905314#3 531705282#1 531705281 531705280#0 531705280#1 531705280#2 531705280#3 219983568 219983574 219983580#0 219983580#1 221966546#1 84816944 221966545#0 221966545#1 221966545#2 18603151#0 18603151#1 150061815#0 150061815#1 26265913#0 26265913#1 26265913#2 26265913#3 26265913#4 26265913#5 26265913#6 26265913#7 26265913#8 26265913#9 26265913#10 26265913#11 26265913#12 26265913#13 26265913#14 26265913#15 26265913#16 26265913#17 26265913#18 26265913#19 -26265913#19"/>
    </vehicle>
    <vehicle id="36" depart="36.00">
        <route edges="26265913#2 -26265913#2 -26265913#1 -26265913#0 26265907#0 26265907#1 150331716#0 150331716#1 18603162#0 18603162#1 221966545#4 18623044#0 18623044#1 18623044#2 219983576 219983571 531705279#0 531705279#1 531705279#2 531705279#3 531705278 531705282#5 531705282#6 50905315#0 50905315#1 50905315#2 50905315#3 50905315#4 50905315#5 531559652 251023755 8027582#0 8027582#1 8027582#2 8027582#3 8027582#4 8027582#5 8027582#6 50905278#0 50905278#1 50905278#2 84816949#0 84816949#1 84816949#2 8027580#0 8027580#1 75137074#0 75137074#1 75137074#2 8027571#4 8027571#5 8027575 282151358 282151361 8027572#4 8027572#5 540857494 540857498#4 540857498#0 540857496 18629829#0 18629829#1 18629829#2 18629829#3 18629829#4 18629829#5 18629829#6 18629829#7 18629829#8 18629829#9 18629829#10 18629829#11 18629829#12 18629829#13 18629829#14 18629829#15 89633802 22804021#1 89633807 89633813#0 89633813#1 51205423#0 51205423#1 51205423#2 51205423#3 51205423#4 51205423#5 51205423#6 51205423#7 51205423#8 51205423#9 50545368#0 50545368#1 50545368#2 50545368#3 521666093#0 521666093#1 521666093#2 521666093#3 521666093#4 22804625#0 22804625#1 22804625#2 22804625#3"/>
    </vehicle>
    <vehicle id="37" depart="37.00">
        <route edges="-26265718#0 154202542#1 154202542#2 154202529#2 -33002403#1 -33002403#0 33002400#1 33002400#2 33002400#3 33002400#4 33002882#0 33002882#1 33002882#2 33002882#3 33002879#4 33002885#0 33002885#1 33002884#1 33002886 50905298 50905305#0 50905305#1 22980019#6 22980019#7 22980019#8 22980019#9 22980019#10 18623352#0 18623352#1 18623352#2 18623352#3 18623352#4 18623352#5 8027582#4 8027582#5 8027582#6 50905278#0 50905278#1 50905278#2 84816949#0 84816949#1 84816949#2 8027580#0 8027580#1 75137074#0 75137074#1 75137074#2 8027571#4 8027571#5 8027575 282151358 282151361 8027572#4 8027572#5 8027572#6 8027572#7 4695569 -30802237 128671393#0 128671393#1 -128671394#9 -128671394#8 -128671394#7 -128671394#6 -128671394#5 -128671394#4 -128671394#3 -128671394#2 -128671394#1 -128671394#0"/>
    </vehicle>
    <vehicle id="38" depart="38.00">
        <route edges="26264830#1 26264830#2 -18604834#1 -18604834#0 18604791#0 18604791#1 18604791#2 221966545#0 221966545#1 221966545#2 18603151#0 18603151#1 150061815#0 150061815#1 26265913#0 26265913#1 26265913#2 26265913#3 26265913#4 26265913#5 26265913#6 26265913#7 26265913#8 26265913#9 26265913#10 26265913#11 26265913#12 26265913#13 26265913#14 26265913#15 26265913#16 26265913#17 26265913#18 26265913#19 26265913#20 18628534#0 18628534#1 26122425 -18628506#1 -18628506#0"/>
    </vehicle>
    <vehicle id="39" depart="39.00">
        <route edges="2305914 -16279905#1 -16279905#0 -16279904 -16279885 16279973 510003336 16279990#0 16279990#1 16279990#2 8027571#2"/>
    </vehicle>
    <vehicle id="40" depart="40.00">
        <route edges="-26264833#2 -26264833#1 -26264833#0 18605558#5 221966545#1 221966545#2 221966545#3 221966545#4 18623044#0 18623044#1 18623044#2 219983576 219983571 531705279#0 531705279#1 531705279#2 531705279#3 531705278 531705282#5 531705282#6 50905315#0 50905315#1 50905315#2 50905315#3 50905315#4 50905315#5 531559652 251023755 8027582#0 8027582#1 8027582#2 8027582#3 8027582#4 8027582#5 8027582#6 50905278#0 50905278#1 50905278#2 84816949#0 84816949#1 84816949#2 8027580#0 8027580#1 75137074#0 75137074#1 75137074#2 8027571#4 8027571#5 8027575 282151358 282151361 8027572#4 8027572#5 540857494 540857498#4 540857498#0 540857496 18629829#0 18629829#1 18629829#2 18629829#3 18629829#4 18629829#5 18629829#6 -18629829#6"/>
    </vehicle>
    <vehicle id="44" depart="44.00">
        <route edges="-51205423#9 -51205423#8 -51205423#7 -51205423#6 -51205423#5 -51205423#4 -51205423#3 -51205423#2 -51205423#1 -51205423#0 -89633813#1 -89633813#0 22804026 22804021#3 22804021#4 523994817 89633799 -18629829#15 -18629829#14 -18629829#13 -18629829#12 -18629829#11 -18629829#10 -18629829#9 -18629829#8 -18629829#7 -18629829#6 -18629829#5 -18629829#4 -18629829#3 -18629829#2 -18629829#1 -18629829#0 540857497 540857498#2 540857495 8027572#7 8027572#0 8027572#1 8027572#2 282151364 282151360 282151363 8027571#1 8027571#2 18629207#0 18629207#1 18629207#2 18629207#3 18629207#4 18629207#5 84816949#4 84816949#5 84816949#6 8027584#0 8027584#1 8027584#2 8027582#8 50905314#0 50905314#1 50905314#2 50905314#3 531705282#1 531705281 531705280#0 531705280#1 531705280#2 531705280#3 219983568 219983574 219983580#0 219983580#1 221966546#1 18604777#0 18604777#1 18604777#2 18604834#0 18604834#1 -26264830#2 -26264830#1 -26285657#1 -26285657#0 26285651#2 26285651#3 26285651#4 26285651#5 75483897 -27848806#3 -27848806#2 -27848806#1 -27848806#0 27848806#0"/>
    </vehicle>
    <vehicle id="45" depart="45.00">
        <route edges="128671394#9 128671393#2 128671393#3 30802237 4695568"/>
    </vehicle>
    <vehicle id="46" depart="46.00">
        <route edges="8027571#4 8027571#5 8027575 282151358 282151361 8027572#4 8027572#5 8027572#6 8027572#7 8027572#0 8027572#1 18630489#0 18630489#1 499548872 30631485 499548873 2305914"/>
    </vehicle>
    <vehicle id="49" depart="49.00">
        <route edges="22804699#0 -22804699#0 -50545368#1 -50545368#0 -51205423#9 -51205423#8 -51205423#7 -51205423#6 -51205423#5 -51205423#4 -51205423#3 -51205423#2 -51205423#1 -51205423#0 -89633813#1 -89633813#0 22804026 22804021#3 22804021#4 523994817 89633799 -18629829#15 -18629829#14 -18629829#13 -18629829#12 -18629829#11 -18629829#10 -18629829#9 -18629829#8 -18629829#7 -18629829#6 -18629829#5 -18629829#4 -18629829#3 -18629829#2 -18629829#1 -18629829#0 540857497 540857498#2 540857495 8027572#7 8027572#0 8027572#1 8027572#2 282151364 282151360 282151363 8027571#1 8027571#2 18629207#0 18629207#1 18629207#2 18629207#3 18629207#4 18629207#5 84816949#4 84816949#5 84816949#6 8027584#0 8027584#1 8027584#2 8027582#8 50905314#0 50905314#1 50905314#2 50905314#3 531705282#1 531705281 531705280#0 531705280#1 531705280#2 531705280#3 219983568 219983574 219983580#0 219983580#1 221966546#1 84816944 221966545#0 -18605558#5 26264833#0 26264833#1 26264833#2"/>
    </vehicle>
    <vehicle id="50" depart="50.00">
        <route edges="22804696 22804698 -51205423#9 -51205423#8 -51205423#7 -51205423#6 -51205423#5 -51205423#4 51205423#4"/>
    </vehicle>
    <vehicle id="51" depart="51.00">
        <route edges="51160392 499513759 30631485 499548873 2305914 -16279905#1 -16279905#0 -16279904 -16279885 16279973 510003336 16279990#0 16280031#0 16280031#1 18629207#1 18629207#2 18629207#3 18629207#4 18629207#5 84816949#4 84816949#5 84816949#6 8027584#0 8027584#1 8027584#2 8027582#8 50905314#0 50905314#1 50905314#2 50905314#3 531705282#1 531705281 531705280#0 531705280#1 531705280#2 531705280#3 219983568 219983574 219983580#0 219983580#1 221966546#1 84816944 221966545#0 221966545#1 221966545#2 18603151#0 18603151#1 150061815#0 150061815#1 26265913#0 26265913#1"/>
    </vehicle>
    <vehicle id="52" depart="52.00">
        <route edges="8027579 499513763 8027572#5 540857494 540857498#4 540857498#0 540857496 18629829#0 18629829#1 18629829#2 18629829#3 18629829#4 18629829#5 18629829#6 18629829#7 18629829#8 18629829#9 18629829#10 18629829#11 18629829#12 18629829#13 18629829#14 18629829#15 89633802 22804021#1 89633807 89633813#0 89633813#1 51205423#0 51205423#1 51205423#2 51205423#3 51205423#4 51205423#5 51205423#6 22804624#0 22804624#1 22804624#2 22804624#3 22804624#4"/>
    </vehicle>
    <vehicle id="54" depart="54.00">
        <route edges="26265913#7 -26265913#7 -26265913#6 -26265913#5 -26265913#4 -26265913#3 -26265913#2 -26265913#1 -26265913#0 26265907#0 26265907#1 150331716#0 150331716#1 18603162#0 18603162#1 221966545#4 18623044#0 18623044#1 18623044#2 219983576 219983571 531705279#0 531705279#1 531705279#2 531705279#3 531705278 531705282#5 531705282#6 50905315#0 50905315#1 50905315#2 50905315#3 50905315#4 50905315#5 531559652 251023755 8027582#0 8027582#1 8027582#2 8027582#3 8027582#4 8027582#5 8027582#6 50905278#0 50905278#1 50905278#2 84816949#0 84816949#1 84816949#2 8027580#0 8027580#1 75137074#0 75137074#1 75137074#2 8027571#4 8027571#5 8027575 282151358 282151361 8027572#4 8027572#5 540857494 540857498#4 540857498#0 540857496 18629829#0 18629829#1 18629829#2 18629829#3 18629829#4 18629829#5 18629829#6 18629829#7 -18629829#7"/>
    </vehicle>
    <vehicle id="57" depart="57.00">
        <route edges="154202530#1 154202530#2 154202530#3 154202541 154202538#3 154202538#4 154202542#0 154202542#1 154202542#2 154202529#2 -33002403#1 -33002403#0 33002400#1 33002400#2 33002400#3 33002400#4 33002882#0 33002882#1 33002882#2 33002882#3 33002879#4 33002885#0 33002885#1 33002884#1 33002886 50905298 50905305#0 50905305#1 22980019#6 22980019#7 22980019#8 22980019#9 22980019#10 18623352#0 18623352#1 18623352#2 18623352#3 18623352#4 18623352#5 8027582#4 8027582#5 8027582#6 50905278#0 50905278#1 50905278#2 84816949#0 84816949#1 84816949#2 8027580#0 8027580#1 75137074#0 75137074#1 75137074#2 8027571#4 8027571#5 8027575 282151358 282151361 8027572#4 8027572#5 8027572#6 8027572#7 8027572#0 8027572#1 18630489#0 18630489#1"/>
    </vehicle>
    <vehicle id="59" depart="59.00">
        <route edges="50905309#1 50905309#2 50905309#3 50905309#4 50905309#5 22980019#3 22980019#4 22980019#5 22980019#6 26265584#0 26265584#1"/>
    </vehicle>
    <vehicle id="60" depart="60.00">
        <route edges="-18605558#5 18605558#5 221966545#1 221966545#2 221966545#3 221966545#4 221966545#5 221966546#0 221966546#1 18604777#0 18604777#1 18604777#2 18604834#0 18604834#1 -26264830#2 -26264830#1"/>
    </vehicle>
    <vehicle id="61" depart="61.00">
        <route edges="22804024#0 22804024#1 89633812 523994817 89633799 -18629829#15 -18629829#14 -18629829#13 -18629829#12 -18629829#11 -18629829#10 -18629829#9 -18629829#8 -18629829#7 -18629829#6 -18629829#5 -18629829#4 -18629829#3 -18629829#2 -18629829#1 -18629829#0 540857497 540857498#2 540857495 8027572#7 8027572#0 8027572#1 8027572#2 282151364 282151360 282151363 8027571#1 8027571#2 18629207#0 18629207#1 18629207#2 18629207#3 18629207#4 18629207#5 84816949#4 84816949#5 84816949#6 8027584#0 8027584#1 8027584#2 8027582#8 8027582#9 8027582#10 8027582#11 8027582#0 8027582#1 8027582#2 8027582#3 8027582#4 8027582#5 8027582#6 8027582#7"/>
    </vehicle>
    <vehicle id="62" depart="62.00">
        <route edges="18629829#15 -18629829#15 -18629829#14 -18629829#13 -18629829#12 -18629829#11 -18629829#10 -18629829#9 -18629829#8 -18629829#7 -18629829#6 -18629829#5 -18629829#4 -18629829#3 -18629829#2 -18629829#1 -18629829#0 540857497 540857498#2 540857495 8027572#7 8027572#0 8027572#1 8027572#2 282151364 282151360 282151363 8027571#1 8027571#2 18629207#0 18629207#1 18629207#2 18629207#3 18629207#4 18629207#5 84816949#4 84816949#5 84816949#6 8027584#0 8027584#1 8027584#2 8027582#8 50905314#0 50905314#1 50905314#2 50905314#3 531705282#1 531705281 531705280#0 531705280#1 531705280#2 531705280#3 219983568 219983574 219983580#0 219983580#1 221966546#1 84816944 221966545#0 221966545#1 221966545#2 18603151#0 18603151#1 150061815#0 150061815#1 26265913#0 26265913#1 26265913#2 26265913#3 26265913#4 26265913#5 26265913#6 26265913#7 26265913#8 26265913#9 26265913#10 26265913#11 26265913#12 26265913#13 26265913#14 26265913#15 26265913#16 26265913#17 26265913#18 26265913#19 -26265913#19"/>
    </vehicle>
    <vehicle id="63" depart="63.00">
        <route edges="33001255 -33001255 154202528#3 154202528#4 33002402#0 33002402#1 33002400#3 33002400#4 33002882#0 33002882#1 33002882#2 33002882#3 33002879#4 33002885#0 33002885#1 33002884#1 33002886 50905298 50905305#0 50905305#1 22980019#6 22980019#7 22980019#8 22980019#9 22980019#10 18623352#0 18623352#1 18623352#2 18623352#3 18623352#4 18623352#5 8027582#4 8027582#5 8027582#6 8027582#7 8027582#8 50905314#0 50905314#1 50905314#2 50905314#3 531705282#1 531705281 531705280#0 531705280#1 531705280#2 531705280#3 219983568 219983574 219983580#0 219983580#1 221966546#1 84816944 221966545#0 221966545#1 221966545#2 221966545#3 221966545#4 18623044#0 18623044#1 18623044#2 219983576 219983571 531705279#0 531705279#1 -531705277#2 -531705277#1 -531705277#0 531705277#0"/>
    </vehicle>
    <vehicle id="64" depart="64.00">