<?xml version="1.0" encoding="UTF-8"?>

<!-- generated on Wed Feb  7 12:57:01 2018 by SUMO polyconvert Version 0.32.0
<?xml version="1.0" encoding="UTF-8"?>

<configuration xmlns:xsi="http://www.w3.org/2001/XMLSchema-instance" xsi:noNamespaceSchemaLocation="http://sumo.dlr.de/xsd/polyconvertConfiguration.xsd">

    <input>
        <net-file value="street.net.xml"/>
        <osm-files value="street.osm"/>
        <type-file value="typemap.xml"/>
    </input>

    <output>
        <output-file value="street.poly.xml"/>
    </output>

    <processing>
        <poi-layer-offset value="5"/>
    </processing>

</configuration>
-->

<additional xmlns:xsi="http://www.w3.org/2001/XMLSchema-instance" xsi:noNamespaceSchemaLocation="http://sumo.dlr.de/xsd/additional_file.xsd">
    <location netOffset="-373281.32,-4822858.24" convBoundary="-2626.80,-0.00,5152.77,11736.87" origBoundary="1.397532,43.548632,1.494425,43.653557" projParameter="+proj=utm +zone=31 +ellps=WGS84 +datum=WGS84 +units=m +no_defs"/>

    <poly id="100118673" type="amenity" color="237,199,199" fill="1" layer="-1.00" shape="3490.34,2421.98 3517.76,2456.59 3526.45,2467.94 3532.46,2476.55 3537.86,2482.12 3543.47,2483.83 3552.82,2484.61 3563.10,2488.11 3577.75,2489.23 3593.45,2482.99 3615.86,2473.84 3648.54,2459.82 3661.66,2450.85 3694.95,2427.89 3731.28,2401.95 3775.31,2366.33 3840.43,2312.83 3910.10,2252.60 4008.26,2168.52 4054.66,2125.34 3884.15,1876.79 3881.35,1872.72 3880.54,1873.25 3873.37,1878.27 3870.97,1874.84 3870.50,1875.16 3868.87,1872.82 3869.43,1872.43 3867.19,1869.23 3869.02,1867.94 3868.58,1867.31 3867.80,1866.02 3872.04,1859.47 3853.03,1846.18 3838.16,1856.53 3818.09,1877.06 3790.10,1897.44 3771.75,1908.50 3590.56,2015.85 3582.16,2023.79 3578.25,2029.11 3574.07,2034.36 3568.79,2038.10 3563.81,2040.90 3560.62,2041.82 3552.61,2043.08 3543.25,2045.33 3536.12,2048.95 3496.33,2072.54 3471.95,2087.09 3456.19,2098.94 3439.72,2117.02 3422.03,2140.87 3417.48,2149.00 3411.43,2155.43 3407.41,2161.86 3404.80,2167.09 3403.96,2171.24 3404.70,2175.53 3404.61,2181.17 3401.07,2194.84 3398.68,2209.69 3396.71,2224.76 3396.62,2240.45 3397.71,2256.93 3401.15,2277.15 3405.42,2290.80 3410.45,2305.05 3415.09,2315.22 3424.97,2332.38 3443.49,2357.56 3463.85,2384.54 3468.66,2390.57 3473.86,2397.31 3478.61,2403.90 3490.34,2421.98"/>
    <poly id="100121837" type="building" color="255,230,230" fill="1" layer="-1.00" shape="3568.40,2453.79 3574.13,2434.69 3555.03,2428.97 3550.04,2445.56 3549.16,2448.01 3568.40,2453.79"/>
    <poly id="100121838" type="building" color="255,230,230" fill="1" layer="-1.00" shape="3528.56,2420.97 3526.29,2420.28 3525.70,2422.25 3519.16,2420.28 3518.22,2423.41 3514.71,2422.36 3512.06,2431.19 3515.47,2432.20 3514.54,2435.31 3521.12,2437.29 3520.50,2439.37 3522.43,2439.94 3523.56,2437.60 3528.56,2420.97"/>
    <poly id="100121842" type="building" color="255,230,230" fill="1" layer="-1.00" shape="3522.43,2439.94 3523.56,2437.60 3538.09,2441.97 3537.49,2444.50 3535.52,2451.08 3532.44,2450.15 3531.42,2453.55 3522.52,2450.88 3523.54,2447.48 3520.45,2446.54 3522.43,2439.94"/>
    <poly id="100121843" type="building" color="255,230,230" fill="1" layer="-1.00" shape="3463.37,2317.97 3458.83,2316.56 3470.08,2282.12 3468.11,2281.48 3469.45,2277.39 3458.95,2273.96 3454.23,2272.42 3446.18,2297.08 3441.02,2295.40 3442.24,2291.68 3433.39,2288.78 3428.34,2304.24 3437.14,2307.12 3439.27,2300.58 3444.61,2302.33 3438.29,2321.70 3453.43,2326.64 3454.58,2323.15 3458.94,2324.52 3461.06,2318.85 3463.00,2319.47 3463.37,2317.97"/>
    <poly id="105259122" type="parking" color="184,184,179" fill="1" layer="-1.00" shape="3644.36,1794.42 3650.80,1798.85 3624.74,1836.49 3618.30,1832.06 3644.36,1794.42"/>
    <poly id="105259124" type="building" color="255,230,230" fill="1" layer="-1.00" shape="3357.03,1964.42 3363.09,1968.59 3363.99,1967.29 3366.23,1968.83 3363.63,1972.60 3365.59,1973.95 3346.66,2001.33 3340.79,1997.31 3339.81,1998.72 3337.44,1997.10 3340.16,1993.18 3338.11,1991.78 3357.03,1964.42"/>
    <poly id="105259125" type="building" color="255,230,230" fill="1" layer="-1.00" shape="3400.71,1985.98 3397.71,1990.69 3388.13,1984.63 3391.13,1979.92 3400.71,1985.98"/>
    <poly id="105259469" type="building" color="255,230,230" fill="1" layer="-1.00" shape="3532.08,1734.08 3540.51,1739.91 3524.06,1763.49 3518.82,1759.85 3520.92,1756.85 3519.42,1755.81 3523.78,1749.56 3522.09,1748.39 3532.08,1734.08"/>
    <poly id="105259709" type="building" color="255,230,230" fill="1" layer="-1.00" shape="3327.55,1963.14 3336.15,1969.04 3320.64,1991.49 3312.04,1985.59 3327.55,1963.14"/>
    <poly id="105259761" type="building" color="255,230,230" fill="1" layer="-1.00" shape="3365.85,2133.21 3372.75,2138.15 3375.58,2134.22 3368.67,2129.28 3365.85,2133.21"/>
    <poly id="105259816" type="building" color="255,230,230" fill="1" layer="-1.00" shape="3317.29,2201.93 3314.05,2207.19 3321.80,2211.93 3325.05,2206.68 3317.29,2201.93"/>
    <poly id="105259817" type="building" color="255,230,230" fill="1" layer="-1.00" shape="3326.54,2166.73 3344.11,2178.98 3350.22,2170.28 3332.65,2158.03 3326.54,2166.73"/>
    <poly id="105259818" type="building" color="255,230,230" fill="1" layer="-1.00" shape="3360.19,2141.06 3366.90,2145.85 3369.64,2142.05 3362.94,2137.24 3360.19,2141.06"/>
    <poly id="105261430" type="parking" color="184,184,179" fill="1" layer="-1.00" shape="3251.66,2538.75 3247.13,2535.65 3298.77,2460.12 3303.30,2463.21 3251.66,2538.75"/>
    <poly id="105261432" type="parking" color="184,184,179" fill="1" layer="-1.00" shape="3320.70,2318.36 3316.41,2315.37 3307.22,2308.97 3315.87,2296.66 3355.49,2240.26 3359.34,2242.95 3359.64,2251.06 3354.60,2258.26 3359.25,2261.50 3351.67,2272.30 3352.60,2272.95 3320.70,2318.36"/>
    <poly id="118991175" type="building" color="255,230,230" fill="1" layer="-1.00" shape="4036.47,2229.48 4037.32,2230.77 4052.16,2225.44 4053.91,2221.72 4050.97,2213.34 4056.39,2211.72 4054.59,2205.84 4055.34,2205.73 4055.31,2202.62 4055.03,2202.37 4025.90,2213.01 4028.84,2217.97 4036.47,2229.48"/>
    <poly id="118991176" type="building" color="255,230,230" fill="1" layer="-1.00" shape="4058.48,2201.16 4059.05,2203.77 4059.34,2204.54 4060.19,2206.86 4061.05,2206.52 4063.75,2212.59 4069.42,2209.93 4070.60,2212.35 4071.06,2213.34 4074.22,2211.66 4073.25,2209.73 4077.67,2207.39 4079.73,2204.98 4079.19,2203.91 4078.39,2204.40 4076.40,2200.64 4077.73,2200.16 4072.49,2196.01 4058.48,2201.16"/>
    <poly id="118991181" type="building" color="255,230,230" fill="1" layer="-1.00" shape="4034.65,2242.01 4036.78,2244.65 4037.60,2243.99 4039.61,2246.50 4043.51,2243.37 4041.52,2240.89 4041.82,2240.64 4039.68,2237.98 4034.65,2242.01"/>
    <poly id="118991182" type="building" color="255,230,230" fill="1" layer="-1.00" shape="4059.34,2204.54 4060.19,2206.86 4061.05,2206.52 4063.75,2212.59 4069.42,2209.93 4070.60,2212.35 4063.38,2215.75 4061.61,2215.15 4057.31,2205.49 4059.34,2204.54"/>
    <poly id="128003132" type="building" color="255,230,230" fill="1" layer="-1.00" shape="3912.92,1282.29 3913.76,1281.08 3914.07,1279.56 3913.75,1278.00 3912.96,1276.82 3911.74,1275.98 3910.22,1275.67 3908.66,1275.98 3907.47,1276.78 3906.61,1278.05 3906.32,1279.53 3906.62,1281.04 3907.45,1282.27 3908.72,1283.13 3910.19,1283.41 3911.74,1283.09 3912.92,1282.29"/>
    <poly id="128003133" type="building" color="255,230,230" fill="1" layer="-1.00" shape="4439.02,2309.29 4415.25,2272.27 4405.15,2278.75 4407.73,2282.77 4395.57,2290.58 4402.09,2300.73 4404.13,2299.43 4406.05,2302.41 4409.34,2300.30 4410.52,2302.15 4409.37,2302.89 4411.05,2305.51 4413.94,2303.66 4415.65,2306.32 4410.58,2309.58 4413.94,2314.82 4417.66,2312.43 4422.47,2319.93 4439.02,2309.29"/>
    <poly id="128003134" type="building" color="255,230,230" fill="1" layer="-1.00" shape="3737.86,2894.42 3768.04,2866.81 3745.19,2831.37 3750.00,2828.33 3752.58,2832.30 3761.47,2826.50 3758.01,2821.13 3776.50,2809.14 3780.02,2814.83 3781.41,2813.95 3794.08,2832.55 3792.73,2833.43 3796.61,2839.47 3805.29,2833.22 3788.44,2807.23 3792.94,2804.44 3786.01,2793.54 3743.44,2820.21 3697.14,2854.99 3706.86,2868.01 3714.50,2863.11 3737.86,2894.42"/>
    <poly id="128003135" type="building" color="255,230,230" fill="1" layer="-1.00" shape="4583.26,1127.36 4585.34,1120.80 4587.93,1120.68 4587.65,1117.95 4594.95,1117.36 4593.51,1109.71 4586.57,1112.70 4585.91,1111.35 4585.14,1110.33 4583.83,1109.32 4584.86,1106.84 4583.27,1106.24 4582.10,1106.02 4580.85,1105.87 4579.37,1105.87 4578.36,1105.98 4577.26,1106.30 4575.97,1106.88 4577.17,1109.06 4576.29,1109.80 4575.65,1110.63 4574.96,1111.71 4574.30,1112.88 4573.87,1114.37 4573.72,1115.87 4573.53,1121.04 4575.74,1120.95 4575.76,1122.26 4575.95,1122.97 4577.91,1127.38 4583.26,1127.36"/>
    <poly id="128003138" type="building" color="255,230,230" fill="1" layer="-1.00" shape="4144.38,1641.96 4149.25,1645.22 4165.67,1620.94 4160.80,1617.67 4144.38,1641.96"/>
    <poly id="128003139" type="building" color="255,230,230" fill="1" layer="-1.00" shape="3959.92,2774.09 3957.39,2771.09 3948.70,2778.44 3951.24,2781.43 3959.92,2774.09"/>
    <poly id="128003140" type="building" color="255,230,230" fill="1" layer="-1.00" shape="4544.91,2039.36 4542.32,2035.54 4550.82,2029.77 4553.41,2033.60 4544.91,2039.36"/>
    <poly id="128003141" type="building" color="255,230,230" fill="1" layer="-1.00" shape="4026.21,1668.82 4023.63,1667.03 4018.19,1674.83 4020.77,1676.63 4026.21,1668.82"/>
    <poly id="128003142" type="building" color="255,230,230" fill="1" layer="-1.00" shape="4036.50,1607.17 4033.85,1611.00 4043.77,1617.84 4046.42,1614.01 4036.50,1607.17"/>
    <poly id="128003143" type="building" color="255,230,230" fill="1" layer="-1.00" shape="3913.63,1275.76 3908.11,1272.17 3910.66,1268.21 3916.21,1271.82 3913.63,1275.76"/>
    <poly id="128003144" type="building" color="255,230,230" fill="1" layer="-1.00" shape="4530.17,1999.35 4527.47,1995.36 4519.22,2000.98 4521.91,2004.95 4530.17,1999.35"/>
    <poly id="128003145" type="building" color="255,230,230" fill="1" layer="-1.00" shape="3942.94,2793.70 3941.28,2791.86 3947.05,2786.62 3948.71,2788.45 3942.94,2793.70"/>
    <poly id="128003146" type="building" color="255,230,230" fill="1" layer="-1.00" shape="3945.30,2796.29 3951.10,2791.01 3949.42,2789.17 3943.62,2794.44 3945.30,2796.29"/>
    <poly id="128003149" type="building" color="255,230,230" fill="1" layer="-1.00" shape="4188.00,1659.82 4191.99,1654.03 4189.85,1652.56 4185.83,1658.27 4188.00,1659.82"/>
    <poly id="128003150" type="building" color="255,230,230" fill="1" layer="-1.00" shape="4009.20,1659.95 4010.60,1657.93 4004.21,1653.48 4002.81,1655.48 4009.20,1659.95"/>
    <poly id="128003151" type="building" color="255,230,230" fill="1" layer="-1.00" shape="3958.18,2796.87 3952.27,2802.00 3948.98,2798.22 3954.89,2793.09 3958.18,2796.87"/>
    <poly id="128003152" type="building" color="255,230,230" fill="1" layer="-1.00" shape="4427.67,2305.80 4424.43,2300.76 4419.28,2304.06 4422.52,2309.10 4427.67,2305.80"/>
    <poly id="128003153" type="building" color="255,230,230" fill="1" layer="-1.00" shape="3975.45,1069.46 3981.15,1061.04 3955.88,1044.07 3950.18,1052.51 3975.45,1069.46"/>
    <poly id="128003154" type="building" color="255,230,230" fill="1" layer="-1.00" shape="4533.46,2022.23 4530.87,2018.41 4539.24,2012.71 4541.84,2016.54 4533.46,2022.23"/>
    <poly id="128003155" type="building" color="255,230,230" fill="1" layer="-1.00" shape="3853.93,2822.12 3847.62,2814.94 3851.11,2811.87 3857.42,2819.06 3853.93,2822.12"/>
    <poly id="128003157" type="building" color="255,230,230" fill="1" layer="-1.00" shape="4023.63,1667.03 4010.60,1657.93 4009.20,1659.95 4002.81,1655.48 3996.45,1664.61 4003.38,1669.45 4005.70,1666.13 4018.19,1674.83 4023.63,1667.03"/>
    <poly id="128003159" type="building" color="255,230,230" fill="1" layer="-1.00" shape="3775.80,2962.44 3760.58,2945.45 3878.79,2839.61 3888.69,2850.67 3886.32,2852.79 3888.46,2855.17 3882.73,2860.31 3885.90,2863.85 3775.80,2962.44"/>
    <poly id="136984813" type="building" color="255,230,230" fill="1" layer="-1.00" shape="3469.38,3005.01 3479.10,2994.10 3466.64,2983.00 3467.34,2982.21 3464.16,2979.38 3463.45,2980.17 3454.88,2972.54 3445.16,2983.44 3469.38,3005.01"/>
    <poly id="136984815" type="building" color="255,230,230" fill="1" layer="-1.00" shape="3460.59,2934.90 3452.59,2943.88 3449.93,2941.52 3447.95,2943.74 3431.38,2928.98 3441.67,2917.44 3446.52,2921.76 3446.22,2922.10 3460.59,2934.90"/>
    <poly id="136984816" type="building" color="255,230,230" fill="1" layer="-1.00" shape="3449.02,3028.68 3458.14,3018.15 3428.47,2986.82 3419.38,2997.62 3424.03,3002.50 3449.02,3028.68"/>
    <poly id="136984820" type="building" color="255,230,230" fill="1" layer="-1.00" shape="3513.88,2949.13 3520.00,2941.57 3492.30,2918.08 3485.68,2925.83 3494.25,2934.99 3509.70,2946.19 3513.88,2949.13"/>
    <poly id="136984821" type="building" color="255,230,230" fill="1" layer="-1.00" shape="3419.01,2962.56 3424.76,2956.00 3425.33,2956.50 3432.40,2948.45 3431.79,2947.92 3437.55,2941.35 3427.97,2932.96 3409.40,2954.13 3419.01,2962.56"/>
    <poly id="136984822" type="building" color="255,230,230" fill="1" layer="-1.00" shape="3546.62,2913.68 3555.19,2903.82 3523.85,2876.59 3515.28,2886.46 3524.33,2894.31 3525.37,2893.12 3540.25,2906.03 3539.20,2907.23 3546.62,2913.68"/>
    <poly id="136984823" type="building" color="255,230,230" fill="1" layer="-1.00" shape="3472.45,2899.31 3475.96,2895.27 3476.46,2895.69 3480.34,2891.23 3479.42,2890.44 3480.92,2888.70 3481.84,2889.51 3485.59,2885.19 3485.06,2884.74 3488.48,2880.80 3488.99,2881.24 3494.67,2874.70 3482.70,2864.30 3460.96,2889.33 3472.45,2899.31"/>
    <poly id="136984824" type="building" color="255,230,230" fill="1" layer="-1.00" shape="3574.35,2802.83 3564.80,2813.82 3562.00,2811.39 3561.76,2811.66 3542.57,2794.97 3549.63,2786.85 3553.15,2785.63 3555.81,2786.79 3561.71,2791.93 3560.91,2792.84 3566.72,2797.89 3567.56,2796.92 3574.35,2802.83"/>
    <poly id="136984825" type="building" color="255,230,230" fill="1" layer="-1.00" shape="3603.65,2847.73 3612.30,2837.75 3580.90,2810.52 3572.24,2820.51 3581.33,2828.39 3582.39,2827.15 3597.23,2840.01 3596.17,2841.23 3603.65,2847.73"/>
    <poly id="136984826" type="building" color="255,230,230" fill="1" layer="-1.00" shape="3527.03,2857.63 3536.51,2846.69 3534.01,2844.53 3535.01,2843.38 3515.35,2826.34 3504.86,2838.44 3514.47,2846.77 3515.34,2845.76 3521.25,2850.89 3520.38,2851.88 3527.03,2857.63"/>
    <poly id="136984827" type="building" color="255,230,230" fill="1" layer="-1.00" shape="3532.87,2930.82 3540.55,2919.19 3536.06,2916.17 3530.61,2908.11 3516.73,2899.84 3510.73,2907.88 3529.31,2924.06 3528.78,2926.47 3532.87,2930.82"/>
    <poly id="136984830" type="building" color="255,230,230" fill="1" layer="-1.00" shape="3431.62,3046.81 3422.77,3055.18 3420.15,3052.34 3419.63,3052.84 3415.98,3049.02 3412.77,3052.26 3407.66,3046.78 3410.88,3043.68 3398.10,3030.03 3399.10,3029.03 3396.53,3026.28 3404.95,3018.27 3418.18,3032.43 3431.62,3046.81"/>
    <poly id="136984831" type="building" color="255,230,230" fill="1" layer="-1.00" shape="3565.93,2891.38 3574.92,2880.96 3543.26,2853.63 3535.60,2862.50 3561.66,2885.02 3560.33,2886.55 3565.93,2891.38"/>
    <poly id="136984833" type="building" color="255,230,230" fill="1" layer="-1.00" shape="3469.93,2923.55 3479.62,2912.49 3477.15,2910.32 3477.98,2909.37 3465.10,2898.10 3464.22,2899.09 3459.51,2894.97 3455.91,2899.09 3453.96,2897.38 3447.92,2904.27 3469.93,2923.55"/>
    <poly id="136984834" type="building" color="255,230,230" fill="1" layer="-1.00" shape="3397.79,3009.96 3380.80,2992.03 3378.80,2989.92 3374.57,2993.92 3371.94,2991.14 3370.64,2991.62 3368.83,2992.63 3367.20,2993.71 3365.27,2995.41 3384.06,3015.24 3385.13,3014.22 3389.50,3018.83 3392.08,3016.40 3391.57,3015.85 3397.79,3009.96"/>
    <poly id="136984835" type="building" color="255,230,230" fill="1" layer="-1.00" shape="3585.16,2869.19 3593.43,2859.66 3570.81,2840.02 3562.53,2849.57 3571.68,2857.51 3572.66,2856.40 3576.97,2860.14 3576.01,2861.26 3585.16,2869.19"/>
    <poly id="136984836" type="building" color="255,230,230" fill="1" layer="-1.00" shape="3495.71,2849.28 3517.72,2868.40 3509.01,2878.43 3506.68,2876.41 3504.99,2878.35 3485.31,2861.24 3495.71,2849.28"/>
    <poly id="136984837" type="building" color="255,230,230" fill="1" layer="-1.00" shape="3551.53,2808.75 3539.62,2798.38 3517.46,2823.85 3528.91,2833.80 3532.51,2829.66 3533.01,2830.11 3536.81,2825.74 3535.88,2824.92 3537.44,2823.12 3538.37,2823.94 3542.18,2819.56 3541.62,2819.07 3545.08,2815.09 3545.61,2815.55 3551.53,2808.75"/>
    <poly id="136984838" type="building" color="255,230,230" fill="1" layer="-1.00" shape="3495.18,2974.34 3504.52,2963.31 3472.52,2934.05 3463.27,2946.25 3495.18,2974.34"/>
    <poly id="136984839" type="building" color="255,230,230" fill="1" layer="-1.00" shape="3411.80,2989.78 3422.32,2979.81 3420.12,2977.45 3421.16,2976.41 3402.84,2957.06 3401.95,2958.28 3401.07,2959.90 3400.13,2962.05 3399.49,2964.29 3399.04,2966.96 3398.96,2969.71 3399.45,2973.24 3400.57,2976.53 3401.89,2978.91 3403.16,2980.73 3411.80,2989.78"/>
    <poly id="136984840" type="building" color="255,230,230" fill="1" layer="-1.00" shape="3389.88,3093.92 3417.19,3062.73 3409.21,3055.74 3406.75,3058.56 3404.44,3056.53 3382.10,3082.05 3384.36,3084.03 3381.86,3086.89 3389.88,3093.92"/>
    <poly id="140611760" type="water" color="181,209,209" fill="0" layer="-4.00" shape="3097.46,2898.29 3087.19,2912.71 3065.80,2934.28 3038.64,2955.34 2999.59,2985.56 2941.57,3024.64 2906.11,3061.15 2882.70,3098.63 2868.70,3147.52 2865.13,3179.06 2860.30,3297.62 2849.43,3358.37 2830.41,3410.91 2808.24,3463.10 2784.83,3502.77 2654.03,3666.83 2630.14,3709.90 2624.73,3724.99"/>
    <poly id="142376979" type="building" color="255,230,230" fill="1" layer="-1.00" shape="4167.55,1310.51 4156.97,1303.28 4158.09,1301.66 4153.42,1298.46 4151.87,1297.39 4144.71,1307.75 4137.05,1302.51 4147.32,1287.62 4142.64,1284.41 4152.34,1270.35 4157.07,1273.60 4158.16,1272.00 4170.54,1254.09 4167.53,1252.02 4169.48,1249.19 4179.94,1256.36 4177.99,1259.17 4164.34,1278.95 4169.89,1282.76 4165.02,1289.82 4167.83,1291.73 4176.44,1297.64 4167.55,1310.51"/>
    <poly id="142376983" type="building" color="255,230,230" fill="1" layer="-1.00" shape="4141.34,1186.12 4151.81,1170.93 4181.59,1191.38 4179.94,1193.75 4177.90,1196.78 4174.51,1201.62 4154.79,1188.21 4153.06,1190.79 4151.49,1193.04 4141.34,1186.12"/>
    <poly id="142376988" type="building" color="255,230,230" fill="1" layer="-1.00" shape="4211.77,1245.85 4210.40,1246.85 4208.90,1247.70 4207.42,1248.29 4205.73,1248.75 4204.05,1248.97 4202.36,1248.99 4200.82,1248.81 4199.12,1248.40 4197.48,1247.78 4196.09,1247.02 4194.69,1246.05 4193.42,1244.88 4192.37,1243.65 4191.62,1242.55 4190.76,1240.87 4190.11,1238.93 4189.77,1237.06 4189.70,1235.11 4189.80,1234.01 4190.09,1232.42 4190.63,1230.74 4191.30,1229.29 4192.23,1227.82 4193.35,1226.46 4194.51,1225.38 4195.93,1224.34 4197.31,1223.58 4198.89,1222.95 4200.51,1222.52 4202.19,1222.30 4203.89,1222.29 4205.51,1222.49 4207.14,1222.89 4208.73,1223.51 4210.23,1224.31 4211.56,1225.25 4212.77,1226.37 4213.90,1227.70 4214.82,1229.12 4215.55,1230.64 4216.07,1232.18 4216.40,1233.85 4216.53,1235.52 4216.44,1237.19 4216.13,1238.85 4215.63,1240.43 4214.91,1241.99 4214.01,1243.42 4212.96,1244.70 4211.77,1245.85"/>
    <poly id="142376991" type="building" color="255,230,230" fill="1" layer="-1.00" shape="4083.96,1136.17 4091.91,1124.70 4129.06,1150.46 4121.26,1161.71 4099.99,1147.21 4099.21,1148.45 4100.27,1149.32 4097.60,1153.14 4093.55,1148.55 4091.51,1147.26 4094.26,1143.21 4083.96,1136.17"/>
    <poly id="142377056" type="building" color="255,230,230" fill="1" layer="-1.00" shape="4134.32,1303.89 4145.03,1288.38 4139.99,1284.92 4151.88,1267.69 4158.16,1272.00 4157.07,1273.60 4152.34,1270.35 4142.64,1284.41 4147.32,1287.62 4137.05,1302.51 4144.71,1307.75 4151.87,1297.39 4153.42,1298.46 4144.75,1311.02 4134.32,1303.89"/>
    <poly id="142377059" type="building" color="255,230,230" fill="1" layer="-1.00" shape="4146.75,1203.35 4135.13,1195.34 4135.84,1194.22 4147.45,1202.23 4146.75,1203.35"/>
    <poly id="142377060" type="building" color="255,230,230" fill="1" layer="-1.00" shape="4179.21,1197.76 4177.90,1196.78 4179.94,1193.75 4181.25,1194.72 4180.17,1196.33 4179.21,1197.76"/>
    <poly id="142377063" type="building" color="255,230,230" fill="1" layer="-1.00" shape="4141.34,1186.12 4151.49,1193.04 4153.06,1190.79 4158.79,1194.69 4150.92,1206.27 4146.75,1203.35 4147.45,1202.23 4135.84,1194.22 4141.34,1186.12"/>
    <poly id="142377065" type="building" color="255,230,230" fill="1" layer="-1.00" shape="4177.99,1259.17 4179.60,1260.28 4166.99,1278.53 4173.75,1283.16 4167.83,1291.73 4165.02,1289.82 4169.89,1282.76 4164.34,1278.95 4177.99,1259.17"/>
    <poly id="142994248" type="amenity" color="237,199,199" fill="1" layer="-1.00" shape="3360.41,2393.06 3366.58,2391.44 3434.23,2437.66 3437.58,2432.46 3440.47,2431.06 3443.98,2429.10 3450.43,2425.27 3446.62,2412.89 3440.11,2398.47 3408.13,2355.70 3391.40,2330.14 3377.39,2293.16 3369.06,2246.93 3369.36,2217.06 3375.83,2183.40 3383.60,2159.23 3396.25,2133.89 3409.95,2111.29 3427.86,2090.45 3441.41,2077.50 3462.89,2061.27 3485.50,2047.57 3511.72,2032.52 3524.65,2024.60 3531.95,2017.77 3536.46,2012.01 3542.17,2003.52 3547.09,1998.37 3555.48,1995.43 3571.04,1993.50 3579.58,1991.89 3589.94,1985.91 3609.78,1974.26 3652.56,1948.72 3747.28,1892.81 3768.97,1879.63 3787.55,1867.92 3799.35,1858.97 3810.08,1849.37 3823.67,1833.65 3832.86,1819.92 3722.69,1742.71 3709.46,1733.51 3607.46,1662.52 3597.87,1674.58 3577.89,1660.09 3505.42,1768.11 3453.20,1847.77 3440.71,1862.91 3424.43,1875.80 3398.34,1889.59 3371.10,1895.03 3305.32,1900.65 3306.45,1922.73 3307.83,1949.81 3308.76,2061.32 3308.28,2129.14 3306.81,2163.42 3305.63,2156.63 3302.08,2195.75 3297.25,2228.07 3280.60,2268.83 3249.91,2331.01 3234.23,2363.98 3219.56,2397.41 3210.85,2420.22 3208.43,2426.57 3202.06,2456.55 3197.11,2491.91 3195.73,2523.74 3194.52,2713.64 3214.32,2720.62 3253.28,2731.71 3271.41,2741.50 3294.88,2748.77 3353.88,2712.64 3389.70,2682.94 3424.68,2632.55 3382.04,2603.71 3364.97,2627.87 3251.61,2550.09 3360.41,2393.06"/>
    <poly id="142994248#1" type="military" color="153,153,92" fill="1" layer="-3.00" shape="3360.41,2393.06 3366.58,2391.44 3434.23,2437.66 3437.58,2432.46 3440.47,2431.06 3443.98,2429.10 3450.43,2425.27 3446.62,2412.89 3440.11,2398.47 3408.13,2355.70 3391.40,2330.14 3377.39,2293.16 3369.06,2246.93 3369.36,2217.06 3375.83,2183.40 3383.60,2159.23 3396.25,2133.89 3409.95,2111.29 3427.86,2090.45 3441.41,2077.50 3462.89,2061.27 3485.50,2047.57 3511.72,2032.52 3524.65,2024.60 3531.95,2017.77 3536.46,2012.01 3542.17,2003.52 3547.09,1998.37 3555.48,1995.43 3571.04,1993.50 3579.58,1991.89 3589.94,1985.91 3609.78,1974.26 3652.56,1948.72 3747.28,1892.81 3768.97,1879.63 3787.55,1867.92 3799.35,1858.97 3810.08,1849.37 3823.67,1833.65 3832.86,1819.92 3722.69,1742.71 3709.46,1733.51 3607.46,1662.52 3597.87,1674.58 3577.89,1660.09 3505.42,1768.11 3453.20,1847.77 3440.71,1862.91 3424.43,1875.80 3398.34,1889.59 3371.10,1895.03 3305.32,1900.65 3306.45,1922.73 3307.83,1949.81 3308.76,2061.32 3308.28,2129.14 3306.81,2163.42 3305.63,2156.63 3302.08,2195.75 3297.25,2228.07 3280.60,2268.83 3249.91,2331.01 3234.23,2363.98 3219.56,2397.41 3210.85,2420.22 3208.43,2426.57 3202.06,2456.55 3197.11,2491.91 3195.73,2523.74 3194.52,2713.64 3214.32,2720.62 3253.28,2731.71 3271.41,2741.50 3294.88,2748.77 3353.88,2712.64 3389.70,2682.94 3424.68,2632.55 3382.04,2603.71 3364.97,2627.87 3251.61,2550.09 3360.41,2393.06"/>
    <poly id="142994249" type="military" color="153,153,92" fill="1" layer="-3.00" shape="3450.43,2425.27 3443.98,2429.10 3440.47,2431.06 3437.58,2432.46 3434.23,2437.66 3366.58,2391.44 3360.41,2393.06 3251.61,2550.09 3359.88,2624.28 3364.97,2627.87 3382.04,2603.71 3424.68,2632.55 3495.87,2530.06 3498.95,2525.55 3508.80,2511.58 3512.56,2500.84 3513.08,2494.71 3482.90,2454.87 3478.00,2451.59 3466.60,2444.09 3458.17,2437.05 3450.43,2425.27"/>
    <poly id="143149712" type="building" color="255,230,230" fill="1" layer="-1.00" shape="3144.94,1662.78 3129.16,1652.00 3141.70,1633.76 3157.48,1644.54 3144.94,1662.78"/>
    <poly id="143149712#1" type="sport" color="79,230,125" fill="1" layer="-2.00" shape="3144.94,1662.78 3129.16,1652.00 3141.70,1633.76 3157.48,1644.54 3144.94,1662.78"/>
    <poly id="143149714" type="building" color="255,230,230" fill="1" layer="-1.00" shape="3090.44,1427.13 3098.02,1432.39 3099.84,1429.77 3098.35,1428.74 3103.66,1421.09 3105.13,1422.12 3106.95,1419.49 3099.40,1414.24 3090.44,1427.13"/>
    <poly id="146561235" type="leisure" color="207,245,201" fill="1" layer="-2.00" shape="3709.95,2284.85 3718.59,2250.08 3735.98,2254.37 3727.33,2289.14 3709.95,2284.85"/>
    <poly id="146561235#1" type="sport" color="79,230,125" fill="1" layer="-2.00" shape="3709.95,2284.85 3718.59,2250.08 3735.98,2254.37 3727.33,2289.14 3709.95,2284.85"/>
    <poly id="146561238" type="leisure" color="207,245,201" fill="1" layer="-2.00" shape="3709.95,2284.85 3718.59,2250.08 3701.02,2245.74 3692.37,2280.51 3709.95,2284.85"/>
    <poly id="146561238#1" type="sport" color="79,230,125" fill="1" layer="-2.00" shape="3709.95,2284.85 3718.59,2250.08 3701.02,2245.74 3692.37,2280.51 3709.95,2284.85"/>
    <poly id="146561242" type="leisure" color="207,245,201" fill="1" layer="-2.00" shape="3674.11,2236.83 3656.67,2232.58 3648.02,2267.87 3665.45,2272.11 3674.11,2236.83"/>
    <poly id="146561242#1" type="sport" color="79,230,125" fill="1" layer="-2.00" shape="3674.11,2236.83 3656.67,2232.58 3648.02,2267.87 3665.45,2272.11 3674.11,2236.83"/>
    <poly id="146561243" type="leisure" color="207,245,201" fill="1" layer="-2.00" shape="3648.02,2267.87 3656.67,2232.58 3639.22,2228.33 3630.56,2263.62 3648.02,2267.87"/>
    <poly id="146561243#1" type="sport" color="79,230,125" fill="1" layer="-2.00" shape="3648.02,2267.87 3656.67,2232.58 3639.22,2228.33 3630.56,2263.62 3648.02,2267.87"/>
    <poly id="151233417" type="leisure" color="207,245,201" fill="1" layer="-2.00" shape="3228.38,2206.39 3248.93,2176.91 3219.26,2156.37 3198.71,2185.85 3228.38,2206.39"/>
    <poly id="151233417#1" type="sport" color="79,230,125" fill="1" layer="-2.00" shape="3228.38,2206.39 3248.93,2176.91 3219.26,2156.37 3198.71,2185.85 3228.38,2206.39"/>
    <poly id="153954502" type="building" color="255,230,230" fill="1" layer="-1.00" shape="4170.05,1011.16 4193.63,1027.47 4177.52,1051.25 4181.62,1054.11 4184.08,1050.31 4186.17,1051.38 4186.91,1057.85 4206.87,1029.06 4203.88,1027.50 4205.35,1025.49 4210.61,1024.36 4200.11,1017.29 4176.03,1000.77 4177.97,1008.12 4176.90,1009.71 4172.60,1006.97 4170.05,1011.16"/>
    <poly id="153954503" type="building" color="255,230,230" fill="1" layer="-1.00" shape="3995.12,937.06 4018.91,901.72 4029.92,909.16 4005.72,944.37 3995.12,937.06"/>
    <poly id="154094249" type="leisure" color="207,245,201" fill="1" layer="-2.00" shape="3578.39,1951.92 3593.56,1962.00 3613.59,1932.65 3599.08,1922.49 3578.39,1951.92"/>
    <poly id="154094249#1" type="sport" color="79,230,125" fill="1" layer="-2.00" shape="3578.39,1951.92 3593.56,1962.00 3613.59,1932.65 3599.08,1922.49 3578.39,1951.92"/>
    <poly id="154094250" type="leisure" color="207,245,201" fill="1" layer="-2.00" shape="3593.56,1962.00 3608.08,1972.48 3628.65,1942.98 3613.59,1932.65 3593.56,1962.00"/>
    <poly id="154094250#1" type="sport" color="79,230,125" fill="1" layer="-2.00" shape="3593.56,1962.00 3608.08,1972.48 3628.65,1942.98 3613.59,1932.65 3593.56,1962.00"/>
    <poly id="154094253" type="leisure" color="207,245,201" fill="1" layer="-2.00" shape="3726.86,1902.95 3667.18,1863.28 3733.38,1764.44 3793.05,1804.12 3726.86,1902.95"/>
    <poly id="154094253#1" type="sport" color="79,230,125" fill="1" layer="-2.00" shape="3726.86,1902.95 3667.18,1863.28 3733.38,1764.44 3793.05,1804.12 3726.86,1902.95"/>
    <poly id="154094254" type="leisure" color="207,245,201" fill="1" layer="-2.00" shape="3621.22,1931.11 3633.77,1939.60 3650.72,1914.88 3638.23,1906.67 3621.22,1931.11"/>
    <poly id="154094254#1" type="sport" color="79,230,125" fill="1" layer="-2.00" shape="3621.22,1931.11 3633.77,1939.60 3650.72,1914.88 3638.23,1906.67 3621.22,1931.11"/>
    <poly id="154096087" type="amenity" color="237,199,199" fill="1" layer="-1.00" shape="3336.05,2066.04 3338.64,2067.84 3337.40,2069.62 3343.85,2074.09 3345.06,2072.35 3369.54,2089.29 3368.29,2091.08 3374.63,2095.46 3375.86,2093.70 3378.43,2095.47 3387.38,2082.63 3403.08,2060.12 3392.32,2052.67 3393.55,2050.92 3402.32,2038.34 3398.84,2035.93 3404.24,2028.19 3390.32,2018.56 3384.96,2026.26 3381.35,2023.77 3371.36,2038.08 3360.68,2030.69 3336.05,2066.04"/>
    <poly id="154096087#1" type="building" color="255,230,230" fill="1" layer="-1.00" shape="3336.05,2066.04 3338.64,2067.84 3337.40,2069.62 3343.85,2074.09 3345.06,2072.35 3369.54,2089.29 3368.29,2091.08 3374.63,2095.46 3375.86,2093.70 3378.43,2095.47 3387.38,2082.63 3403.08,2060.12 3392.32,2052.67 3393.55,2050.92 3402.32,2038.34 3398.84,2035.93 3404.24,2028.19 3390.32,2018.56 3384.96,2026.26 3381.35,2023.77 3371.36,2038.08 3360.68,2030.69 3336.05,2066.04"/>
    <poly id="154096360" type="building" color="255,230,230" fill="1" layer="-1.00" shape="3339.37,2394.88 3366.40,2355.84 3337.01,2335.28 3309.79,2374.49 3339.37,2394.88"/>
    <poly id="154109754" type="leisure" color="207,245,201" fill="1" layer="-2.00" shape="3637.31,1340.60 3651.75,1351.22 3673.38,1322.25 3659.02,1311.63 3637.31,1340.60"/>
    <poly id="154109754#1" type="sport" color="79,230,125" fill="1" layer="-2.00" shape="3637.31,1340.60 3651.75,1351.22 3673.38,1322.25 3659.02,1311.63 3637.31,1340.60"/>
    <poly id="154109755" type="leisure" color="207,245,201" fill="1" layer="-2.00" shape="3651.75,1351.22 3667.08,1361.51 3688.23,1332.70 3673.38,1322.25 3651.75,1351.22"/>