<?xml version="1.0" encoding="UTF-8"?>
<!-- generated on 2018-02-07 13:08:06.854335 by $Id$
  options: -n street.net.xml -r street.rou.xml -e 100 -l
-->
<routes xmlns:xsi="http://www.w3.org/2001/XMLSchema-instance" xsi:noNamespaceSchemaLocation="http://sumo.dlr.de/xsd/routes_file.xsd">
    <trip id="0" depart="0.00" from="-26265718#0" to="22804626#2"/>
    <trip id="1" depart="1.00" from="-18604834#1" to="499548864"/>
    <trip id="2" depart="2.00" from="8027580#1" to="-47658040"/>
    <trip id="3" depart="3.00" from="-30802237" to="435487995#1"/>
    <trip id="4" depart="4.00" from="128671394#2" to="128671394#9"/>
    <trip id="5" depart="5.00" from="-51205423#9" to="499513762"/>
    <trip id="6" depart="6.00" from="-22915271#0" to="-542141625#1"/>
    <trip id="7" depart="7.00" from="219983571" to="14689640"/>
    <trip id="8" depart="8.00" from="14689633" to="16280031#1"/>
    <trip id="9" depart="9.00" from="-26265913#22" to="49197578"/>
    <trip id="10" depart="10.00" from="22804029#8" to="26138234#4"/>
    <trip id="11" depart="11.00" from="-22804695#1" to="14689640"/>
    <trip id="12" depart="12.00" from="128671394#5" to="22804626#1"/>
    <trip id="13" depart="13.00" from="-18629829#6" to="-128671394#9"/>
    <trip id="14" depart="14.00" from="-50545368#2" to="510005741"/>
    <trip id="15" depart="15.00" from="-154202542#1" to="154202534#0"/>
    <trip id="16" depart="16.00" from="18604834#1" to="-154202544#1"/>
    <trip id="17" depart="17.00" from="-22804625#3" to="22804029#5"/>
    <trip id="18" depart="18.00" from="-128671394#2" to="18629207#4"/>
    <trip id="19" depart="19.00" from="-26265585" to="22804029#9"/>
    <trip id="20" depart="20.00" from="18629207#4" to="-18607845#3"/>
    <trip id="21" depart="21.00" from="-26265913#22" to="14689640"/>
    <trip id="22" depart="22.00" from="-18628506#1" to="22804029#5"/>
    <trip id="23" depart="23.00" from="16279990#1" to="50905315#3"/>
    <trip id="24" depart="24.00" from="31872860" to="154202544#0"/>
    <trip id="25" depart="25.00" from="499548864" to="175241058"/>
    <trip id="26" depart="26.00" from="26265913#18" to="18628052#1"/>
    <trip id="27" depart="27.00" from="4485469#0" to="154202542#1"/>
    <trip id="28" depart="28.00" from="-24580039#2" to="499513759"/>
    <trip id="29" depart="29.00" from="-26265913#12" to="26680283#1"/>
    <trip id="30" depart="30.00" from="2305914" to="33002403#1"/>
    <trip id="31" depart="31.00" from="18629207#0" to="50905278#1"/>
    <trip id="32" depart="32.00" from="-154202542#1" to="26264833#2"/>
    <trip id="33" depart="33.00" from="154202535" to="154202537"/>
    <trip id="34" depart="34.00" from="-142377038#0" to="-26265913#3"/>
    <trip id="35" depart="35.00" from="33002882#1" to="-26265913#19"/>
    <trip id="36" depart="36.00" from="26265913#2" to="22804625#3"/>
    <trip id="37" depart="37.00" from="-26265718#0" to="-128671394#0"/>
    <trip id="38" depart="38.00" from="26264830#1" to="-18628506#0"/>
    <trip id="39" depart="39.00" from="2305914" to="8027571#2"/>
    <trip id="40" depart="40.00" from="-26264833#2" to="-18629829#6"/>
    <trip id="41" depart="41.00" from="-18628506#1" to="32598980#1"/>
    <trip id="42" depart="42.00" from="521666093#3" to="499548864"/>
    <trip id="43" depart="43.00" from="26264833#2" to="499513766"/>
    <trip id="44" depart="44.00" from="-51205423#9" to="27848806#0"/>
    <trip id="45" depart="45.00" from="128671394#9" to="4695568"/>
    <trip id="46" depart="46.00" from="8027571#4" to="2305914"/>
    <trip id="47" depart="47.00" from="26138234#0" to="435488005#0"/>
    <trip id="48" depart="48.00" from="14689633" to="499513766"/>
    <trip id="49" depart="49.00" from="22804699#0" to="26264833#2"/>
    <trip id="50" depart="50.00" from="22804696" to="51205423#4"/>
    <trip id="51" depart="51.00" from="51160392" to="26265913#1"/>
    <trip id="52" depart="52.00" from="8027579" to="22804624#4"/>
    <trip id="53" depart="53.00" from="18623044#1" to="18630667"/>
    <trip id="54" depart="54.00" from="26265913#7" to="-18629829#7"/>
    <trip id="55" depart="55.00" from="32598980#2" to="499548864"/>
    <trip id="56" depart="56.00" from="22804705#0" to="38169096"/>
    <trip id="57" depart="57.00" from="154202530#1" to="18630489#1"/>
    <trip id="58" depart="58.00" from="128671394#0" to="49154572#1"/>
    <trip id="59" depart="59.00" from="50905309#1" to="26265584#1"/>
    <trip id="60" depart="60.00" from="-18605558#5" to="-26264830#1"/>
    <trip id="61" depart="61.00" from="22804024#0" to="8027582#7"/>
    <trip id="62" depart="62.00" from="18629829#15" to="-26265913#19"/>
    <trip id="63" depart="63.00" from="33001255" to="531705277#0"/>
    <trip id="64" depart="64.00" from="-154202534#0" to="26265913#20"/>
    <trip id="65" depart="65.00" from="-26285651#5" to="-50448438#5"/>
    <trip id="66" depart="66.00" from="-4485469#1" to="26285657#0"/>
    <trip id="67" depart="67.00" from="142377016#0" to="-26265913#17"/>
    <trip id="68" depart="68.00" from="154202530#1" to="33002888#3"/>
    <trip id="69" depart="69.00" from="-26265724#0" to="50448438#3"/>
    <trip id="70" depart="70.00" from="-204818514" to="27848806#3"/>
    <trip id="71" depart="71.00" from="18628506#1" to="-128671394#0"/>
    <trip id="72" depart="72.00" from="50905278#1" to="-542141625#1"/>
    <trip id="73" depart="73.00" from="435487994#0" to="26265913#1"/>
    <trip id="74" depart="74.00" from="22804696" to="150061815#0"/>
    <trip id="75" depart="75.00" from="26265913#14" to="-154202544#0"/>
    <trip id="76" depart="76.00" from="-18628506#1" to="-33002888#2"/>
    <trip id="77" depart="77.00" from="18630334" to="16279904"/>
    <trip id="78" depart="78.00" from="8027579" to="27848806#1"/>
    <trip id="79" depart="79.00" from="-24580039#2" to="499548864"/>
    <trip id="80" depart="80.00" from="32598980#2" to="-51205423#0"/>
    <trip id="81" depart="81.00" from="-26265913#20" to="435488002"/>
    <trip id="82" depart="82.00" from="14689640" to="26122426#2"/>
    <trip id="83" depart="83.00" from="14689640" to="22804624#4"/>
    <trip id="84" depart="84.00" from="-18629829#6" to="32598980#1"/>
    <trip id="85" depart="85.00" from="50448438#4" to="-26265913#20"/>
    <trip id="86" depart="86.00" from="16279990#0" to="-18628506#1"/>
    <trip id="87" depart="87.00" from="27848806#1" to="-16279905#0"/>
    <trip id="88" depart="88.00" from="22804624#4" to="-22804626#1"/>
    <trip id="89" depart="89.00" from="-22804627" to="541661412#0"/>
    <trip id="90" depart="90.00" from="219983568" to="22804697#1"/>
    <trip id="91" depart="91.00" from="14689631" to="-22804625#3"/>
    <trip id="92" depart="92.00" from="-33002888#3" to="-182558739#0"/>
    <trip id="93" depart="93.00" from="22804625#3" to="49154572#1"/>
    <trip id="94" depart="94.00" from="38169096" to="499513765"/>
    <trip id="95" depart="95.00" from="435487994#0" to="38169096"/>
    <trip id="96" depart="96.00" from="2305914" to="22804705#4"/>
    <trip id="97" depart="97.00" from="-33002884#3" to="-204818514"/>
    <trip id="98" depart="98.00" from="499548864" to="8027579"/>
    <trip id="99" depart="99.00" from="-51205423#7" to="-521666093#5"/>
</routes>
